Cenario_2/Tabelas_02/SE_Curr_Elem_FP_0.92.Txt

CIRCUIT ELEMENT CURRENTS

(Currents into element from indicated bus)

Power Delivery Elements

  Bus     Phase    Magnitude, A     Angle      (Real)   +j  (Imag)

ELEMENT = "Vsource.SOURCE"
99            1           29.189 /_  137.8 =    -21.612 +j    19.619
99            2           29.189 /_   17.8 =     27.796 +j    8.9072
99            3           29.189 /_ -102.2 =    -6.1844 +j   -28.526
------------
99            0           29.189 /_  -42.2 =     21.612 +j   -19.619
99            0           29.189 /_ -162.2 =    -27.796 +j   -8.9072
99            0           29.189 /_   77.8 =     6.1844 +j    28.526

ELEMENT = "Line.TRECHO_99-1"
99            1           29.189 /_  -42.2 =     21.612 +j   -19.619
99            2           29.189 /_ -162.2 =    -27.796 +j   -8.9072
99            3           29.189 /_   77.8 =     6.1844 +j    28.526
------------
1             1           29.189 /_  137.8 =    -21.612 +j    19.619
1             2           29.189 /_   17.8 =     27.796 +j    8.9072
1             3           29.189 /_ -102.2 =    -6.1844 +j   -28.526

ELEMENT = "Line.TRECHO_1-2"
1             1            19.62 /_  179.9 =     -19.62 +j  0.019213
1             2            19.62 /_   59.9 =     9.8267 +j    16.982
1             3            19.62 /_  -60.1 =     9.7934 +j   -17.001
------------
2             1            19.62 /_   -0.1 =      19.62 +j -0.019213
2             2            19.62 /_ -120.1 =    -9.8267 +j   -16.982
2             3            19.62 /_  119.9 =    -9.7934 +j    17.001

ELEMENT = "Line.TRECHO_2-6"
2             1           82.082 /_  160.4 =    -77.337 +j    27.504
2             2           82.082 /_   40.4 =     62.488 +j    53.224
2             3           82.082 /_  -79.6 =      14.85 +j   -80.728
------------
6             1           82.082 /_  -19.6 =     77.337 +j   -27.504
6             2           82.082 /_ -139.6 =    -62.488 +j   -53.224
6             3           82.082 /_  100.4 =     -14.85 +j    80.728

ELEMENT = "Line.TRECHO_6-7"
6             1            92.98 /_  159.7 =    -87.222 +j     32.21
6             2            92.98 /_   39.7 =     71.506 +j    59.432
6             3            92.98 /_  -80.3 =     15.716 +j   -91.642
------------
7             1            92.98 /_  -20.3 =     87.222 +j    -32.21
7             2            92.98 /_ -140.3 =    -71.506 +j   -59.432
7             3            92.98 /_   99.7 =    -15.716 +j    91.642

ELEMENT = "Line.TRECHO_1-5"
1             1           27.405 /_  -25.5 =     24.742 +j   -11.784
1             2           27.405 /_ -145.5 =    -22.576 +j   -15.535
1             3           27.405 /_   94.5 =    -2.1658 +j    27.319
------------
5             1           27.405 /_  154.5 =    -24.742 +j    11.784
5             2           27.405 /_   34.5 =     22.576 +j    15.535
5             3           27.405 /_  -85.5 =     2.1658 +j   -27.319

ELEMENT = "Line.TRECHO_2-3"
2             1           45.663 /_  -25.5 =     41.227 +j   -19.633
2             2           45.663 /_ -145.5 =    -37.616 +j   -25.888
2             3           45.663 /_   94.5 =    -3.6112 +j     45.52
------------
3             1           45.663 /_  154.5 =    -41.227 +j    19.633
3             2           45.663 /_   34.5 =     37.616 +j    25.888
3             3           45.663 /_  -85.5 =     3.6112 +j    -45.52

ELEMENT = "Line.TRECHO_3-4"
3             1           18.266 /_  -25.5 =     16.491 +j   -7.8535
3             2           18.266 /_ -145.5 =    -15.047 +j   -10.355
3             3           18.266 /_   94.5 =    -1.4444 +j    18.209
------------
4             1           18.266 /_  154.5 =    -16.491 +j    7.8535
4             2           18.266 /_   34.5 =     15.047 +j    10.355
4             3           18.266 /_  -85.5 =     1.4444 +j   -18.209

ELEMENT = "Transformer.TR1"
1             1           18.265 /_  -25.5 =      16.49 +j    -7.854
1             2           18.265 /_ -145.5 =    -15.047 +j   -10.354
1             3           18.265 /_   94.5 =    -1.4432 +j    18.208
1             0                0 /_    0.0 =          0 +j         0
------------
BT-TR1        1            663.3 /_  124.5 =       -376 +j    546.43
BT-TR1        2            663.3 /_    4.5 =     661.23 +j    52.412
BT-TR1        3            663.3 /_ -115.5 =    -285.22 +j   -598.85
BT-TR1        0      1.3537E-007 /_  -58.8 =  7.0188E-008 +j -1.1575E-007

ELEMENT = "Transformer.TR2"
2             1           18.264 /_  -25.5 =      16.49 +j   -7.8518
2             2           18.264 /_ -145.5 =    -15.045 +j   -10.355
2             3           18.264 /_   94.5 =    -1.4449 +j    18.206
2             0                0 /_    0.0 =          0 +j         0
------------
BT-TR2        1           663.26 /_  124.5 =    -376.03 +j    546.36
BT-TR2        2           663.26 /_    4.5 =     661.18 +j    52.475
BT-TR2        3           663.26 /_ -115.5 =    -285.14 +j   -598.83
BT-TR2        0      1.3542E-007 /_  -58.8 =  7.0202E-008 +j -1.158E-007

ELEMENT = "Transformer.TR3"
3             1           27.397 /_  -25.5 =     24.736 +j   -11.779
3             2           27.397 /_ -145.5 =    -22.569 +j   -15.532
3             3           27.397 /_   94.5 =    -2.1668 +j    27.312
3             0                0 /_    0.0 =          0 +j         0
------------
BT-TR3        1           994.96 /_  124.5 =    -564.07 +j    819.61
BT-TR3        2           994.96 /_    4.5 =     991.84 +j     78.69
BT-TR3        3           994.96 /_ -115.5 =    -427.77 +j    -898.3
BT-TR3        0      2.0316E-007 /_  -58.8 =  1.053E-007 +j -1.7373E-007

ELEMENT = "Transformer.TR4"
4             1           18.266 /_  -25.5 =     16.491 +j   -7.8535
4             2           18.266 /_ -145.5 =    -15.047 +j   -10.355
4             3           18.266 /_   94.5 =    -1.4444 +j    18.209
4             0                0 /_    0.0 =          0 +j         0
------------
BT-TR4        1           663.34 /_  124.5 =    -376.06 +j    546.44
BT-TR4        2           663.34 /_    4.5 =     661.26 +j    52.454
BT-TR4        3           663.34 /_ -115.5 =    -285.21 +j    -598.9
BT-TR4        0      1.3546E-007 /_  -58.8 =  7.0213E-008 +j -1.1584E-007

ELEMENT = "Transformer.TR5"
5             1           27.405 /_  -25.5 =     24.742 +j   -11.784
5             2           27.405 /_ -145.5 =    -22.576 +j   -15.535
5             3           27.405 /_   94.5 =    -2.1658 +j    27.319
5             0                0 /_    0.0 =          0 +j         0
------------
BT-TR5        1           995.24 /_  124.5 =    -564.18 +j    819.88
BT-TR5        2           995.24 /_    4.5 =     992.13 +j    78.655
BT-TR5        3           995.24 /_ -115.5 =    -427.95 +j   -898.53
BT-TR5        0      2.0317E-007 /_  -58.8 =  1.0535E-007 +j -1.7373E-007

ELEMENT = "Transformer.TR6"
6             1           10.949 /_  -25.5 =     9.8854 +j   -4.7065
6             2           10.949 /_ -145.5 =    -9.0187 +j   -6.2077
6             3           10.949 /_   94.5 =   -0.86671 +j    10.914
6             0                0 /_    0.0 =          0 +j         0
------------
BT-TR6        1           397.61 /_  124.5 =    -225.44 +j    327.52
BT-TR6        2           397.61 /_    4.5 =     396.36 +j    31.475
BT-TR6        3           397.61 /_ -115.5 =    -170.92 +j      -359
BT-TR6        0      8.1195E-008 /_  -58.8 =  4.2104E-008 +j -6.9425E-008

ELEMENT = "Transformer.TR7"
7             1           8.2044 /_  -25.5 =     7.4073 +j   -3.5278
7             2           8.2044 /_ -145.5 =    -6.7588 +j    -4.651
7             3           8.2044 /_   94.5 =    -0.6485 +j    8.1788
7             0                0 /_    0.0 =          0 +j         0
------------
BT-TR7        1           297.95 /_  124.5 =     -168.9 +j    245.45
BT-TR7        2           297.95 /_    4.5 =     297.02 +j    23.551
BT-TR7        3           297.95 /_ -115.5 =    -128.11 +j      -269
BT-TR7        0      6.0849E-008 /_  -58.8 =  3.1554E-008 +j -5.2028E-008

ELEMENT = "Transformer.TR_AC1"
TR_ACOPL1     1           3673.5 /_  -20.7 =     3436.6 +j   -1297.9
TR_ACOPL1     2           3673.5 /_ -140.7 =    -2842.3 +j   -2327.2
TR_ACOPL1     3           3673.5 /_   99.3 =     -594.3 +j    3625.1
TR_ACOPL1     0      7.3462E-007 /_ -141.7 =  -5.7688E-007 +j -4.5483E-007
------------
7             1           101.15 /_  159.3 =     -94.63 +j    35.738
7             2           101.15 /_   39.3 =     78.265 +j    64.083
7             3           101.15 /_  -80.7 =     16.365 +j   -99.821
7             0      2.0228E-008 /_   38.3 =  1.5885E-008 +j 1.2524E-008

= = = = = = = = = = = = = = = = = = =  = = = = = = = = = = =  = =

Power Conversion Elements

  Bus     Phase    Magnitude, A     Angle      (Real)   +j  (Imag)

ELEMENT = "Load.LOAD_TR1"
BT-TR1        1           663.29 /_  -55.5 =     375.99 +j   -546.43
BT-TR1        2           663.29 /_ -175.5 =    -661.22 +j   -52.403
BT-TR1        3           663.29 /_   64.5 =     285.23 +j    598.83
BT-TR1        0      1.3537E-007 /_  121.2 =  -7.0184E-008 +j 1.1575E-007

ELEMENT = "Load.LOAD_TR2"
BT-TR2        1           663.25 /_  -55.5 =     376.02 +j   -546.36
BT-TR2        2           663.25 /_ -175.5 =    -661.17 +j   -52.466
BT-TR2        3           663.25 /_   64.5 =     285.15 +j    598.82
BT-TR2        0      1.3542E-007 /_  121.2 =  -7.0199E-008 +j 1.158E-007

ELEMENT = "Load.LOAD_TR3"
BT-TR3        1           994.94 /_  -55.5 =     564.05 +j   -819.61
BT-TR3        2           994.94 /_ -175.5 =    -991.83 +j   -78.676
BT-TR3        3           994.94 /_   64.5 =     427.78 +j    898.29
BT-TR3        0      2.0316E-007 /_  121.2 =  -1.053E-007 +j 1.7374E-007

ELEMENT = "Load.LOAD_TR4"
BT-TR4        1           663.33 /_  -55.5 =     376.05 +j   -546.44
BT-TR4        2           663.33 /_ -175.5 =    -661.25 +j   -52.444
BT-TR4        3           663.33 /_   64.5 =     285.21 +j    598.89
BT-TR4        0      1.3545E-007 /_  121.2 =  -7.0207E-008 +j 1.1584E-007

ELEMENT = "Load.LOAD_TR5"
BT-TR5        1           995.23 /_  -55.5 =     564.16 +j   -819.88
BT-TR5        2           995.23 /_ -175.5 =    -992.11 +j   -78.641
BT-TR5        3           995.23 /_   64.5 =     427.95 +j    898.52
BT-TR5        0      2.0317E-007 /_  121.2 =  -1.0534E-007 +j 1.7372E-007

ELEMENT = "Load.LOAD_TR6"
BT-TR6        1            397.6 /_  -55.5 =     225.43 +j   -327.52
BT-TR6        2            397.6 /_ -175.5 =    -396.35 +j    -31.47
BT-TR6        3            397.6 /_   64.5 =     170.92 +j    358.99
BT-TR6        0      8.1194E-008 /_  121.2 =  -4.2103E-008 +j 6.9425E-008

ELEMENT = "Load.LOAD_TR7"
BT-TR7        1           297.95 /_  -55.5 =      168.9 +j   -245.45
BT-TR7        2           297.95 /_ -175.5 =    -297.01 +j   -23.547
BT-TR7        3           297.95 /_   64.5 =     128.11 +j    268.99
BT-TR7        0      6.0846E-008 /_  121.2 =  -3.1552E-008 +j 5.2026E-008

ELEMENT = "PVSystem.SFV_1"
TR_ACOPL1     1           3673.5 /_  159.3 =    -3436.6 +j    1297.9
TR_ACOPL1     2           3673.5 /_   39.3 =     2842.3 +j    2327.2
TR_ACOPL1     3           3673.5 /_  -80.7 =      594.3 +j   -3625.1
TR_ACOPL1     0       7.346E-007 /_   38.3 =  5.7687E-007 +j 4.5482E-007

